Circuit: * D:\Proyectos_Programacion\ArticulosElectronicosPropios\Boss OC2\simulaciones\octavador OC2.asc

Direct Newton iteration failed to find .op point.  (Use ".option noopiter" to skip.)
Starting Gmin stepping
Gmin = 10
Gmin = 1.07374
Gmin = 0.115292
Gmin = 0.0123794
Gmin = 0.00132923
Gmin = 0.000142725
Gmin = 1.5325e-05
Gmin = 1.6455e-06
Gmin = 1.76685e-07
Gmin = 1.89714e-08
Gmin = 2.03704e-09
Gmin = 2.18725e-10
Gmin = 2.34854e-11
Gmin = 2.52173e-12
Gmin = 2.70769e-13
Gmin = 0
Gmin stepping succeeded in finding the operating point.


Date: Tue May 30 23:49:16 2023
Total elapsed time: 1.872 seconds.

tnom = 27
temp = 27
method = modified trap
totiter = 56667
traniter = 56242
tranpoints = 16715
accept = 11570
rejected = 5145
matrix size = 73
fillins = 149
solver = Normal
Avg thread counts: 1.0/1.0/1.0/1.0
Matrix Compiler1: 18.79 KB object code size  8.8/8.1/[2.9]
Matrix Compiler2: off  [2.6]/3.0/8.0

