Circuit: * D:\Proyectos_Programacion\ArticulosElectronicosPropios\Boss OC2\simulaciones\octavador OC2 - filtros.asc

Direct Newton iteration for .op point succeeded.

Date: Thu Jun  1 04:05:11 2023
Total elapsed time: 0.063 seconds.

tnom = 27
temp = 27
method = trap
totiter = 43
traniter = 0
tranpoints = 0
accept = 0
rejected = 0
matrix size = 42
fillins = 35
solver = Normal
Avg thread counts: 4.0/0.0/4.0/1.9
Matrix Compiler1:     201 opcodes
Matrix Compiler2:     362 opcodes
